lig
 OpenBabel04282421133D

 52 58  0  0  0  0  0  0  0  0999 V2000
    1.9143   -1.7572    0.1470 C   0  0  0  0  0  0  0  0  0  0  0  0
    1.0455   -2.8861    0.1236 C   0  0  0  0  0  0  0  0  0  0  0  0
   -0.3654   -2.7181    0.2534 C   0  0  0  0  0  0  0  0  0  0  0  0
   -0.9567   -1.4288    0.3910 C   0  0  0  0  0  0  0  0  0  0  0  0
   -0.0693   -0.3042    0.3762 C   0  0  0  0  0  0  0  0  0  0  0  0
    1.3419   -0.4466    0.2714 C   0  0  0  0  0  0  0  0  0  0  0  0
   -0.3346    1.0593    0.3819 C   0  0  0  0  0  0  0  0  0  0  0  0
    0.9236    1.7163    0.3028 C   0  0  0  0  0  0  0  0  0  0  0  0
    1.9449    0.7912    0.2712 N   0  0  0  0  0  0  0  0  0  0  0  0
   -1.5775    1.7710    0.3853 C   0  0  0  0  0  0  0  0  0  0  0  0
   -1.5083    3.1916    0.2938 C   0  0  0  0  0  0  0  0  0  0  0  0
   -0.2595    3.8761    0.2094 C   0  0  0  0  0  0  0  0  0  0  0  0
    0.9660    3.1515    0.2126 C   0  0  0  0  0  0  0  0  0  0  0  0
    5.7198    4.4474    2.2899 C   0  0  0  0  0  0  0  0  0  0  0  0
    6.0068    3.4279    1.3269 C   0  0  0  0  0  0  0  0  0  0  0  0
    7.3028    3.2291    0.7752 C   0  0  0  0  0  0  0  0  0  0  0  0
    8.3722    4.1197    1.0595 C   0  0  0  0  0  0  0  0  0  0  0  0
    8.0911    5.1834    1.9641 C   0  0  0  0  0  0  0  0  0  0  0  0
    6.7978    5.3208    2.5925 C   0  0  0  0  0  0  0  0  0  0  0  0
    5.2193    2.4559    0.7437 C   0  0  0  0  0  0  0  0  0  0  0  0
    6.0673    1.6108   -0.0104 C   0  0  0  0  0  0  0  0  0  0  0  0
    7.3276    2.0850    0.0349 N   0  0  0  0  0  0  0  0  0  0  0  0
    3.8433    2.1854    0.8872 C   0  0  0  0  0  0  0  0  0  0  0  0
    3.3229    1.0578    0.1948 C   0  0  0  0  0  0  0  0  0  0  0  0
    4.2137    0.2233   -0.5777 C   0  0  0  0  0  0  0  0  0  0  0  0
    5.6127    0.4592   -0.6848 C   0  0  0  0  0  0  0  0  0  0  0  0
    8.4050    1.5341   -0.5407 C   0  0  0  0  0  0  0  0  0  0  0  0
    9.6603    1.6991    0.0331 C   0  0  0  0  0  0  0  0  0  0  0  0
   10.7779    1.1277   -0.5640 C   0  0  0  0  0  0  0  0  0  0  0  0
   10.6403    0.3914   -1.7349 C   0  0  0  0  0  0  0  0  0  0  0  0
    9.3850    0.2264   -2.3087 C   0  0  0  0  0  0  0  0  0  0  0  0
    8.2674    0.7978   -1.7116 C   0  0  0  0  0  0  0  0  0  0  0  0
    2.9246   -1.8780    0.0766 H   0  0  0  0  0  0  0  0  0  0  0  0
    1.4354   -3.8222    0.0132 H   0  0  0  0  0  0  0  0  0  0  0  0
   -0.9664   -3.5422    0.2474 H   0  0  0  0  0  0  0  0  0  0  0  0
   -1.9647   -1.3122    0.4952 H   0  0  0  0  0  0  0  0  0  0  0  0
   -2.4712    1.2835    0.4502 H   0  0  0  0  0  0  0  0  0  0  0  0
   -2.3731    3.7324    0.2886 H   0  0  0  0  0  0  0  0  0  0  0  0
   -0.2445    4.8941    0.1462 H   0  0  0  0  0  0  0  0  0  0  0  0
    1.8586    3.6414    0.1519 H   0  0  0  0  0  0  0  0  0  0  0  0
    4.8037    4.5401    2.7288 H   0  0  0  0  0  0  0  0  0  0  0  0
    9.2936    4.0036    0.6377 H   0  0  0  0  0  0  0  0  0  0  0  0
    8.8209    5.8647    2.1733 H   0  0  0  0  0  0  0  0  0  0  0  0
    6.6547    6.0667    3.2733 H   0  0  0  0  0  0  0  0  0  0  0  0
    3.2445    2.7753    1.4650 H   0  0  0  0  0  0  0  0  0  0  0  0
    3.8192   -0.5769   -1.0722 H   0  0  0  0  0  0  0  0  0  0  0  0
    6.2367   -0.1555   -1.2075 H   0  0  0  0  0  0  0  0  0  0  0  0
    9.7613    2.2394    0.8923 H   0  0  0  0  0  0  0  0  0  0  0  0
   11.6990    1.2487   -0.1430 H   0  0  0  0  0  0  0  0  0  0  0  0
   11.4604   -0.0279   -2.1731 H   0  0  0  0  0  0  0  0  0  0  0  0
    9.2840   -0.3139   -3.1679 H   0  0  0  0  0  0  0  0  0  0  0  0
    7.3463    0.6768   -2.1326 H   0  0  0  0  0  0  0  0  0  0  0  0
  1  2  2  0  0  0  0
  1 33  1  0  0  0  0
  2  3  1  0  0  0  0
  2 34  1  0  0  0  0
  3  4  2  0  0  0  0
  3 35  1  0  0  0  0
  4  5  1  0  0  0  0
  4 36  1  0  0  0  0
  5  6  2  0  0  0  0
  5  7  1  0  0  0  0
  6  1  1  0  0  0  0
  6  9  1  0  0  0  0
  7  8  2  0  0  0  0
  7 10  1  0  0  0  0
  8  9  1  0  0  0  0
  9 24  1  0  0  0  0
 10 11  2  0  0  0  0
 10 37  1  0  0  0  0
 11 12  1  0  0  0  0
 11 38  1  0  0  0  0
 12 13  2  0  0  0  0
 12 39  1  0  0  0  0
 13  8  1  0  0  0  0
 13 40  1  0  0  0  0
 14 15  2  0  0  0  0
 14 41  1  0  0  0  0
 15 16  1  0  0  0  0
 15 20  1  0  0  0  0
 16 17  2  0  0  0  0
 16 22  1  0  0  0  0
 17 18  1  0  0  0  0
 17 42  1  0  0  0  0
 18 19  2  0  0  0  0
 18 43  1  0  0  0  0
 19 14  1  0  0  0  0
 19 44  1  0  0  0  0
 20 21  2  0  0  0  0
 20 23  1  0  0  0  0
 21 22  1  0  0  0  0
 22 27  1  0  0  0  0
 23 24  2  0  0  0  0
 23 45  1  0  0  0  0
 24 25  1  0  0  0  0
 25 26  2  0  0  0  0
 25 46  1  0  0  0  0
 26 21  1  0  0  0  0
 26 47  1  0  0  0  0
 27 28  2  0  0  0  0
 28 29  1  0  0  0  0
 28 48  1  0  0  0  0
 29 30  2  0  0  0  0
 29 49  1  0  0  0  0
 30 31  1  0  0  0  0
 30 50  1  0  0  0  0
 31 32  2  0  0  0  0
 31 51  1  0  0  0  0
 32 27  1  0  0  0  0
 32 52  1  0  0  0  0
M  END
